<nodes>
    <node id="W" x="0" y="0" type="priority"/>
    <node id="J1" x="100" y="0" type="traffic_light"/>
    <node id="J2" x="200" y="0" type="traffic_light"/>
    <node id="J3" x="300" y="0" type="traffic_light"/>
    <node id="J4" x="400" y="0" type="traffic_light"/>
    <node id="J5" x="500" y="0" type="traffic_light"/>
    <node id="E" x="600" y="0" type="priority"/>

    <node id="N1" x="100" y="100" type="priority"/>
    <node id="S1" x="100" y="-100" type="priority"/>
    <node id="N2" x="200" y="100" type="priority"/>
    <node id="S2" x="200" y="-100" type="priority"/>
    <node id="N3" x="300" y="100" type="priority"/>
    <node id="S3" x="300" y="-100" type="priority"/>
    <node id="N4" x="400" y="100" type="priority"/>
    <node id="S4" x="400" y="-100" type="priority"/>
    <node id="N5" x="500" y="100" type="priority"/>
    <node id="S5" x="500" y="-100" type="priority"/>
</nodes>
