<?xml version="1.0" encoding="UTF-8"?>

<!-- generated on 2026-04-16T12:36:48.790296+05:30 by Eclipse SUMO netconvert 1.26.0
<netconvertConfiguration xmlns:xsi="http://www.w3.org/2001/XMLSchema-instance" xsi:noNamespaceSchemaLocation="http://sumo.dlr.de/xsd/netconvertConfiguration.xsd">

    <input>
        <node-files value="corridor.nod.xml"/>
        <edge-files value="corridor.edg.xml"/>
    </input>

    <output>
        <output-file value="corridor.net.xml"/>
    </output>

</netconvertConfiguration>
-->

<net version="1.20" junctionCornerDetail="5" limitTurnSpeed="5.50" xmlns:xsi="http://www.w3.org/2001/XMLSchema-instance" xsi:noNamespaceSchemaLocation="http://sumo.dlr.de/xsd/net_file.xsd">

    <location netOffset="0.00,100.00" convBoundary="0.00,0.00,600.00,200.00" origBoundary="0.00,-100.00,600.00,100.00" projParameter="!"/>

    <edge id=":E_0" function="internal">
        <lane id=":E_0_0" index="0" speed="3.65" length="4.67" shape="600.00,98.40 601.20,99.20 601.60,100.00 601.20,100.80 600.00,101.60"/>
    </edge>
    <edge id=":J1_0" function="internal">
        <lane id=":J1_0_0" index="0" speed="6.51" length="9.03" shape="98.40,110.40 98.05,107.95 97.00,106.20 95.25,105.15 92.80,104.80"/>
    </edge>
    <edge id=":J1_1" function="internal">
        <lane id=":J1_1_0" index="0" speed="11.10" length="20.80" shape="98.40,110.40 98.40,89.60"/>
    </edge>
    <edge id=":J1_2" function="internal">
        <lane id=":J1_2_0" index="0" speed="8.67" length="5.56" shape="98.40,110.40 98.95,105.15 99.06,104.89"/>
    </edge>
    <edge id=":J1_3" function="internal">
        <lane id=":J1_3_0" index="0" speed="3.65" length="1.44" shape="98.40,110.40 99.20,109.20"/>
    </edge>
    <edge id=":J1_18" function="internal">
        <lane id=":J1_18_0" index="0" speed="8.67" length="11.29" shape="99.06,104.89 100.60,101.40 103.35,99.15 107.20,98.40"/>
    </edge>
    <edge id=":J1_19" function="internal">
        <lane id=":J1_19_0" index="0" speed="3.65" length="3.23" shape="99.20,109.20 100.00,108.80 100.80,109.20 101.60,110.40"/>
    </edge>
    <edge id=":J1_4" function="internal">
        <lane id=":J1_4_0" index="0" speed="6.51" length="9.03" shape="107.20,104.80 104.75,105.15 103.00,106.20 101.95,107.95 101.60,110.40"/>
    </edge>
    <edge id=":J1_5" function="internal">
        <lane id=":J1_5_0" index="0" speed="13.90" length="14.40" shape="107.20,104.80 92.80,104.80"/>
        <lane id=":J1_5_1" index="1" speed="13.90" length="14.40" shape="107.20,101.60 92.80,101.60"/>
    </edge>
    <edge id=":J1_7" function="internal">
        <lane id=":J1_7_0" index="0" speed="8.67" length="3.71" shape="107.20,101.60 103.56,100.89"/>
    </edge>
    <edge id=":J1_8" function="internal">
        <lane id=":J1_8_0" index="0" speed="3.65" length="1.44" shape="107.20,101.60 106.00,100.80"/>
    </edge>
    <edge id=":J1_20" function="internal">
        <lane id=":J1_20_0" index="0" speed="8.67" length="13.14" shape="103.56,100.89 103.35,100.85 100.60,98.60 98.95,94.85 98.40,89.60"/>
    </edge>
    <edge id=":J1_21" function="internal">
        <lane id=":J1_21_0" index="0" speed="3.65" length="3.23" shape="106.00,100.80 105.60,100.00 106.00,99.20 107.20,98.40"/>
    </edge>
    <edge id=":J1_9" function="internal">
        <lane id=":J1_9_0" index="0" speed="6.51" length="9.03" shape="101.60,89.60 101.95,92.05 103.00,93.80 104.75,94.85 107.20,95.20"/>
    </edge>
    <edge id=":J1_10" function="internal">
        <lane id=":J1_10_0" index="0" speed="11.10" length="20.80" shape="101.60,89.60 101.60,110.40"/>
    </edge>
    <edge id=":J1_11" function="internal">
        <lane id=":J1_11_0" index="0" speed="8.67" length="5.56" shape="101.60,89.60 101.05,94.85 100.94,95.11"/>
    </edge>
    <edge id=":J1_12" function="internal">
        <lane id=":J1_12_0" index="0" speed="3.65" length="1.44" shape="101.60,89.60 100.80,90.80"/>
    </edge>
    <edge id=":J1_22" function="internal">
        <lane id=":J1_22_0" index="0" speed="8.67" length="11.29" shape="100.94,95.11 99.40,98.60 96.65,100.85 92.80,101.60"/>
    </edge>
    <edge id=":J1_23" function="internal">
        <lane id=":J1_23_0" index="0" speed="3.65" length="3.23" shape="100.80,90.80 100.00,91.20 99.20,90.80 98.40,89.60"/>
    </edge>
    <edge id=":J1_13" function="internal">
        <lane id=":J1_13_0" index="0" speed="6.51" length="9.03" shape="92.80,95.20 95.25,94.85 97.00,93.80 98.05,92.05 98.40,89.60"/>
    </edge>
    <edge id=":J1_14" function="internal">
        <lane id=":J1_14_0" index="0" speed="13.90" length="14.40" shape="92.80,95.20 107.20,95.20"/>
        <lane id=":J1_14_1" index="1" speed="13.90" length="14.40" shape="92.80,98.40 107.20,98.40"/>
    </edge>
    <edge id=":J1_16" function="internal">
        <lane id=":J1_16_0" index="0" speed="8.67" length="3.71" shape="92.80,98.40 96.44,99.11"/>
    </edge>
    <edge id=":J1_17" function="internal">
        <lane id=":J1_17_0" index="0" speed="3.65" length="1.44" shape="92.80,98.40 94.00,99.20"/>
    </edge>
    <edge id=":J1_24" function="internal">
        <lane id=":J1_24_0" index="0" speed="8.67" length="13.14" shape="96.44,99.11 96.65,99.15 99.40,101.40 101.05,105.15 101.60,110.40"/>
    </edge>
    <edge id=":J1_25" function="internal">
        <lane id=":J1_25_0" index="0" speed="3.65" length="3.23" shape="94.00,99.20 94.40,100.00 94.00,100.80 92.80,101.60"/>
    </edge>
    <edge id=":J2_0" function="internal">
        <lane id=":J2_0_0" index="0" speed="6.51" length="9.03" shape="198.40,110.40 198.05,107.95 197.00,106.20 195.25,105.15 192.80,104.80"/>
    </edge>
    <edge id=":J2_1" function="internal">
        <lane id=":J2_1_0" index="0" speed="11.10" length="20.80" shape="198.40,110.40 198.40,89.60"/>
    </edge>
    <edge id=":J2_2" function="internal">
        <lane id=":J2_2_0" index="0" speed="8.67" length="5.56" shape="198.40,110.40 198.95,105.15 199.06,104.89"/>
    </edge>
    <edge id=":J2_3" function="internal">
        <lane id=":J2_3_0" index="0" speed="3.65" length="1.44" shape="198.40,110.40 199.20,109.20"/>
    </edge>
    <edge id=":J2_18" function="internal">
        <lane id=":J2_18_0" index="0" speed="8.67" length="11.29" shape="199.06,104.89 200.60,101.40 203.35,99.15 207.20,98.40"/>
    </edge>
    <edge id=":J2_19" function="internal">
        <lane id=":J2_19_0" index="0" speed="3.65" length="3.23" shape="199.20,109.20 200.00,108.80 200.80,109.20 201.60,110.40"/>
    </edge>
    <edge id=":J2_4" function="internal">
        <lane id=":J2_4_0" index="0" speed="6.51" length="9.03" shape="207.20,104.80 204.75,105.15 203.00,106.20 201.95,107.95 201.60,110.40"/>
    </edge>
    <edge id=":J2_5" function="internal">
        <lane id=":J2_5_0" index="0" speed="13.90" length="14.40" shape="207.20,104.80 192.80,104.80"/>
        <lane id=":J2_5_1" index="1" speed="13.90" length="14.40" shape="207.20,101.60 192.80,101.60"/>
    </edge>
    <edge id=":J2_7" function="internal">
        <lane id=":J2_7_0" index="0" speed="8.67" length="3.71" shape="207.20,101.60 203.56,100.89"/>
    </edge>
    <edge id=":J2_8" function="internal">
        <lane id=":J2_8_0" index="0" speed="3.65" length="1.44" shape="207.20,101.60 206.00,100.80"/>
    </edge>
    <edge id=":J2_20" function="internal">
        <lane id=":J2_20_0" index="0" speed="8.67" length="13.14" shape="203.56,100.89 203.35,100.85 200.60,98.60 198.95,94.85 198.40,89.60"/>
    </edge>
    <edge id=":J2_21" function="internal">
        <lane id=":J2_21_0" index="0" speed="3.65" length="3.23" shape="206.00,100.80 205.60,100.00 206.00,99.20 207.20,98.40"/>
    </edge>
    <edge id=":J2_9" function="internal">
        <lane id=":J2_9_0" index="0" speed="6.51" length="9.03" shape="201.60,89.60 201.95,92.05 203.00,93.80 204.75,94.85 207.20,95.20"/>
    </edge>
    <edge id=":J2_10" function="internal">
        <lane id=":J2_10_0" index="0" speed="11.10" length="20.80" shape="201.60,89.60 201.60,110.40"/>
    </edge>
    <edge id=":J2_11" function="internal">
        <lane id=":J2_11_0" index="0" speed="8.67" length="5.56" shape="201.60,89.60 201.05,94.85 200.94,95.11"/>
    </edge>
    <edge id=":J2_12" function="internal">
        <lane id=":J2_12_0" index="0" speed="3.65" length="1.44" shape="201.60,89.60 200.80,90.80"/>
    </edge>
    <edge id=":J2_22" function="internal">
        <lane id=":J2_22_0" index="0" speed="8.67" length="11.29" shape="200.94,95.11 199.40,98.60 196.65,100.85 192.80,101.60"/>
    </edge>
    <edge id=":J2_23" function="internal">
        <lane id=":J2_23_0" index="0" speed="3.65" length="3.23" shape="200.80,90.80 200.00,91.20 199.20,90.80 198.40,89.60"/>
    </edge>
    <edge id=":J2_13" function="internal">
        <lane id=":J2_13_0" index="0" speed="6.51" length="9.03" shape="192.80,95.20 195.25,94.85 197.00,93.80 198.05,92.05 198.40,89.60"/>
    </edge>
    <edge id=":J2_14" function="internal">
        <lane id=":J2_14_0" index="0" speed="13.90" length="14.40" shape="192.80,95.20 207.20,95.20"/>
        <lane id=":J2_14_1" index="1" speed="13.90" length="14.40" shape="192.80,98.40 207.20,98.40"/>
    </edge>
    <edge id=":J2_16" function="internal">
        <lane id=":J2_16_0" index="0" speed="8.67" length="3.71" shape="192.80,98.40 196.44,99.11"/>
    </edge>
    <edge id=":J2_17" function="internal">
        <lane id=":J2_17_0" index="0" speed="3.65" length="1.44" shape="192.80,98.40 194.00,99.20"/>
    </edge>
    <edge id=":J2_24" function="internal">
        <lane id=":J2_24_0" index="0" speed="8.67" length="13.14" shape="196.44,99.11 196.65,99.15 199.40,101.40 201.05,105.15 201.60,110.40"/>
    </edge>
    <edge id=":J2_25" function="internal">
        <lane id=":J2_25_0" index="0" speed="3.65" length="3.23" shape="194.00,99.20 194.40,100.00 194.00,100.80 192.80,101.60"/>
    </edge>
    <edge id=":J3_0" function="internal">
        <lane id=":J3_0_0" index="0" speed="6.51" length="9.03" shape="298.40,110.40 298.05,107.95 297.00,106.20 295.25,105.15 292.80,104.80"/>
    </edge>
    <edge id=":J3_1" function="internal">
        <lane id=":J3_1_0" index="0" speed="11.10" length="20.80" shape="298.40,110.40 298.40,89.60"/>
    </edge>
    <edge id=":J3_2" function="internal">
        <lane id=":J3_2_0" index="0" speed="8.67" length="5.56" shape="298.40,110.40 298.95,105.15 299.06,104.89"/>
    </edge>
    <edge id=":J3_3" function="internal">
        <lane id=":J3_3_0" index="0" speed="3.65" length="1.44" shape="298.40,110.40 299.20,109.20"/>
    </edge>
    <edge id=":J3_18" function="internal">
        <lane id=":J3_18_0" index="0" speed="8.67" length="11.29" shape="299.06,104.89 300.60,101.40 303.35,99.15 307.20,98.40"/>
    </edge>
    <edge id=":J3_19" function="internal">
        <lane id=":J3_19_0" index="0" speed="3.65" length="3.23" shape="299.20,109.20 300.00,108.80 300.80,109.20 301.60,110.40"/>
    </edge>
    <edge id=":J3_4" function="internal">
        <lane id=":J3_4_0" index="0" speed="6.51" length="9.03" shape="307.20,104.80 304.75,105.15 303.00,106.20 301.95,107.95 301.60,110.40"/>
    </edge>
    <edge id=":J3_5" function="internal">
        <lane id=":J3_5_0" index="0" speed="13.90" length="14.40" shape="307.20,104.80 292.80,104.80"/>
        <lane id=":J3_5_1" index="1" speed="13.90" length="14.40" shape="307.20,101.60 292.80,101.60"/>
    </edge>
    <edge id=":J3_7" function="internal">
        <lane id=":J3_7_0" index="0" speed="8.67" length="3.71" shape="307.20,101.60 303.56,100.89"/>
    </edge>
    <edge id=":J3_8" function="internal">
        <lane id=":J3_8_0" index="0" speed="3.65" length="1.44" shape="307.20,101.60 306.00,100.80"/>
    </edge>
    <edge id=":J3_20" function="internal">
        <lane id=":J3_20_0" index="0" speed="8.67" length="13.14" shape="303.56,100.89 303.35,100.85 300.60,98.60 298.95,94.85 298.40,89.60"/>
    </edge>
    <edge id=":J3_21" function="internal">
        <lane id=":J3_21_0" index="0" speed="3.65" length="3.23" shape="306.00,100.80 305.60,100.00 306.00,99.20 307.20,98.40"/>
    </edge>
    <edge id=":J3_9" function="internal">
        <lane id=":J3_9_0" index="0" speed="6.51" length="9.03" shape="301.60,89.60 301.95,92.05 303.00,93.80 304.75,94.85 307.20,95.20"/>
    </edge>
    <edge id=":J3_10" function="internal">
        <lane id=":J3_10_0" index="0" speed="11.10" length="20.80" shape="301.60,89.60 301.60,110.40"/>
    </edge>
    <edge id=":J3_11" function="internal">
        <lane id=":J3_11_0" index="0" speed="8.67" length="5.56" shape="301.60,89.60 301.05,94.85 300.94,95.11"/>
    </edge>
    <edge id=":J3_12" function="internal">
        <lane id=":J3_12_0" index="0" speed="3.65" length="1.44" shape="301.60,89.60 300.80,90.80"/>
    </edge>
    <edge id=":J3_22" function="internal">
        <lane id=":J3_22_0" index="0" speed="8.67" length="11.29" shape="300.94,95.11 299.40,98.60 296.65,100.85 292.80,101.60"/>
    </edge>
    <edge id=":J3_23" function="internal">
        <lane id=":J3_23_0" index="0" speed="3.65" length="3.23" shape="300.80,90.80 300.00,91.20 299.20,90.80 298.40,89.60"/>
    </edge>
    <edge id=":J3_13" function="internal">
        <lane id=":J3_13_0" index="0" speed="6.51" length="9.03" shape="292.80,95.20 295.25,94.85 297.00,93.80 298.05,92.05 298.40,89.60"/>
    </edge>
    <edge id=":J3_14" function="internal">
        <lane id=":J3_14_0" index="0" speed="13.90" length="14.40" shape="292.80,95.20 307.20,95.20"/>
        <lane id=":J3_14_1" index="1" speed="13.90" length="14.40" shape="292.80,98.40 307.20,98.40"/>
    </edge>
    <edge id=":J3_16" function="internal">
        <lane id=":J3_16_0" index="0" speed="8.67" length="3.71" shape="292.80,98.40 296.44,99.11"/>
    </edge>
    <edge id=":J3_17" function="internal">
        <lane id=":J3_17_0" index="0" speed="3.65" length="1.44" shape="292.80,98.40 294.00,99.20"/>
    </edge>
    <edge id=":J3_24" function="internal">
        <lane id=":J3_24_0" index="0" speed="8.67" length="13.14" shape="296.44,99.11 296.65,99.15 299.40,101.40 301.05,105.15 301.60,110.40"/>
    </edge>
    <edge id=":J3_25" function="internal">
        <lane id=":J3_25_0" index="0" speed="3.65" length="3.23" shape="294.00,99.20 294.40,100.00 294.00,100.80 292.80,101.60"/>
    </edge>
    <edge id=":J4_0" function="internal">
        <lane id=":J4_0_0" index="0" speed="6.51" length="9.03" shape="398.40,110.40 398.05,107.95 397.00,106.20 395.25,105.15 392.80,104.80"/>
    </edge>
    <edge id=":J4_1" function="internal">
        <lane id=":J4_1_0" index="0" speed="11.10" length="20.80" shape="398.40,110.40 398.40,89.60"/>
    </edge>
    <edge id=":J4_2" function="internal">
        <lane id=":J4_2_0" index="0" speed="8.67" length="5.56" shape="398.40,110.40 398.95,105.15 399.06,104.89"/>
    </edge>
    <edge id=":J4_3" function="internal">
        <lane id=":J4_3_0" index="0" speed="3.65" length="1.44" shape="398.40,110.40 399.20,109.20"/>
    </edge>
    <edge id=":J4_18" function="internal">
        <lane id=":J4_18_0" index="0" speed="8.67" length="11.29" shape="399.06,104.89 400.60,101.40 403.35,99.15 407.20,98.40"/>
    </edge>
    <edge id=":J4_19" function="internal">
        <lane id=":J4_19_0" index="0" speed="3.65" length="3.23" shape="399.20,109.20 400.00,108.80 400.80,109.20 401.60,110.40"/>
    </edge>
    <edge id=":J4_4" function="internal">
        <lane id=":J4_4_0" index="0" speed="6.51" length="9.03" shape="407.20,104.80 404.75,105.15 403.00,106.20 401.95,107.95 401.60,110.40"/>
    </edge>
    <edge id=":J4_5" function="internal">
        <lane id=":J4_5_0" index="0" speed="13.90" length="14.40" shape="407.20,104.80 392.80,104.80"/>
        <lane id=":J4_5_1" index="1" speed="13.90" length="14.40" shape="407.20,101.60 392.80,101.60"/>
    </edge>
    <edge id=":J4_7" function="internal">
        <lane id=":J4_7_0" index="0" speed="8.67" length="3.71" shape="407.20,101.60 403.56,100.89"/>
    </edge>
    <edge id=":J4_8" function="internal">
        <lane id=":J4_8_0" index="0" speed="3.65" length="1.44" shape="407.20,101.60 406.00,100.80"/>
    </edge>
    <edge id=":J4_20" function="internal">
        <lane id=":J4_20_0" index="0" speed="8.67" length="13.14" shape="403.56,100.89 403.35,100.85 400.60,98.60 398.95,94.85 398.40,89.60"/>
    </edge>
    <edge id=":J4_21" function="internal">
        <lane id=":J4_21_0" index="0" speed="3.65" length="3.23" shape="406.00,100.80 405.60,100.00 406.00,99.20 407.20,98.40"/>
    </edge>
    <edge id=":J4_9" function="internal">
        <lane id=":J4_9_0" index="0" speed="6.51" length="9.03" shape="401.60,89.60 401.95,92.05 403.00,93.80 404.75,94.85 407.20,95.20"/>
    </edge>
    <edge id=":J4_10" function="internal">
        <lane id=":J4_10_0" index="0" speed="11.10" length="20.80" shape="401.60,89.60 401.60,110.40"/>
    </edge>
    <edge id=":J4_11" function="internal">
        <lane id=":J4_11_0" index="0" speed="8.67" length="5.56" shape="401.60,89.60 401.05,94.85 400.94,95.11"/>
    </edge>
    <edge id=":J4_12" function="internal">
        <lane id=":J4_12_0" index="0" speed="3.65" length="1.44" shape="401.60,89.60 400.80,90.80"/>
    </edge>
    <edge id=":J4_22" function="internal">
        <lane id=":J4_22_0" index="0" speed="8.67" length="11.29" shape="400.94,95.11 399.40,98.60 396.65,100.85 392.80,101.60"/>
    </edge>
    <edge id=":J4_23" function="internal">
        <lane id=":J4_23_0" index="0" speed="3.65" length="3.23" shape="400.80,90.80 400.00,91.20 399.20,90.80 398.40,89.60"/>
    </edge>
    <edge id=":J4_13" function="internal">
        <lane id=":J4_13_0" index="0" speed="6.51" length="9.03" shape="392.80,95.20 395.25,94.85 397.00,93.80 398.05,92.05 398.40,89.60"/>
    </edge>
    <edge id=":J4_14" function="internal">
        <lane id=":J4_14_0" index="0" speed="13.90" length="14.40" shape="392.80,95.20 407.20,95.20"/>
        <lane id=":J4_14_1" index="1" speed="13.90" length="14.40" shape="392.80,98.40 407.20,98.40"/>
    </edge>
    <edge id=":J4_16" function="internal">
        <lane id=":J4_16_0" index="0" speed="8.67" length="3.71" shape="392.80,98.40 396.44,99.11"/>
    </edge>
    <edge id=":J4_17" function="internal">
        <lane id=":J4_17_0" index="0" speed="3.65" length="1.44" shape="392.80,98.40 394.00,99.20"/>
    </edge>
    <edge id=":J4_24" function="internal">
        <lane id=":J4_24_0" index="0" speed="8.67" length="13.14" shape="396.44,99.11 396.65,99.15 399.40,101.40 401.05,105.15 401.60,110.40"/>
    </edge>
    <edge id=":J4_25" function="internal">
        <lane id=":J4_25_0" index="0" speed="3.65" length="3.23" shape="394.00,99.20 394.40,100.00 394.00,100.80 392.80,101.60"/>
    </edge>
    <edge id=":J5_0" function="internal">
        <lane id=":J5_0_0" index="0" speed="6.51" length="9.03" shape="498.40,110.40 498.05,107.95 497.00,106.20 495.25,105.15 492.80,104.80"/>
    </edge>
    <edge id=":J5_1" function="internal">
        <lane id=":J5_1_0" index="0" speed="11.10" length="20.80" shape="498.40,110.40 498.40,89.60"/>
    </edge>
    <edge id=":J5_2" function="internal">
        <lane id=":J5_2_0" index="0" speed="8.67" length="5.56" shape="498.40,110.40 498.95,105.15 499.06,104.89"/>
    </edge>
    <edge id=":J5_3" function="internal">
        <lane id=":J5_3_0" index="0" speed="3.65" length="1.44" shape="498.40,110.40 499.20,109.20"/>
    </edge>
    <edge id=":J5_18" function="internal">
        <lane id=":J5_18_0" index="0" speed="8.67" length="11.29" shape="499.06,104.89 500.60,101.40 503.35,99.15 507.20,98.40"/>
    </edge>
    <edge id=":J5_19" function="internal">
        <lane id=":J5_19_0" index="0" speed="3.65" length="3.23" shape="499.20,109.20 500.00,108.80 500.80,109.20 501.60,110.40"/>
    </edge>
    <edge id=":J5_4" function="internal">
        <lane id=":J5_4_0" index="0" speed="6.51" length="9.03" shape="507.20,104.80 504.75,105.15 503.00,106.20 501.95,107.95 501.60,110.40"/>
    </edge>
    <edge id=":J5_5" function="internal">
        <lane id=":J5_5_0" index="0" speed="13.90" length="14.40" shape="507.20,104.80 492.80,104.80"/>
        <lane id=":J5_5_1" index="1" speed="13.90" length="14.40" shape="507.20,101.60 492.80,101.60"/>
    </edge>
    <edge id=":J5_7" function="internal">
        <lane id=":J5_7_0" index="0" speed="8.67" length="3.71" shape="507.20,101.60 503.56,100.89"/>
    </edge>
    <edge id=":J5_8" function="internal">
        <lane id=":J5_8_0" index="0" speed="3.65" length="1.44" shape="507.20,101.60 506.00,100.80"/>
    </edge>
    <edge id=":J5_20" function="internal">
        <lane id=":J5_20_0" index="0" speed="8.67" length="13.14" shape="503.56,100.89 503.35,100.85 500.60,98.60 498.95,94.85 498.40,89.60"/>
    </edge>
    <edge id=":J5_21" function="internal">
        <lane id=":J5_21_0" index="0" speed="3.65" length="3.23" shape="506.00,100.80 505.60,100.00 506.00,99.20 507.20,98.40"/>
    </edge>
    <edge id=":J5_9" function="internal">
        <lane id=":J5_9_0" index="0" speed="6.51" length="9.03" shape="501.60,89.60 501.95,92.05 503.00,93.80 504.75,94.85 507.20,95.20"/>
    </edge>
    <edge id=":J5_10" function="internal">
        <lane id=":J5_10_0" index="0" speed="11.10" length="20.80" shape="501.60,89.60 501.60,110.40"/>
    </edge>
    <edge id=":J5_11" function="internal">
        <lane id=":J5_11_0" index="0" speed="8.67" length="5.56" shape="501.60,89.60 501.05,94.85 500.94,95.11"/>
    </edge>
    <edge id=":J5_12" function="internal">
        <lane id=":J5_12_0" index="0" speed="3.65" length="1.44" shape="501.60,89.60 500.80,90.80"/>
    </edge>
    <edge id=":J5_22" function="internal">
        <lane id=":J5_22_0" index="0" speed="8.67" length="11.29" shape="500.94,95.11 499.40,98.60 496.65,100.85 492.80,101.60"/>
    </edge>
    <edge id=":J5_23" function="internal">
        <lane id=":J5_23_0" index="0" speed="3.65" length="3.23" shape="500.80,90.80 500.00,91.20 499.20,90.80 498.40,89.60"/>
    </edge>
    <edge id=":J5_13" function="internal">
        <lane id=":J5_13_0" index="0" speed="6.51" length="9.03" shape="492.80,95.20 495.25,94.85 497.00,93.80 498.05,92.05 498.40,89.60"/>
    </edge>
    <edge id=":J5_14" function="internal">
        <lane id=":J5_14_0" index="0" speed="13.90" length="14.40" shape="492.80,95.20 507.20,95.20"/>
        <lane id=":J5_14_1" index="1" speed="13.90" length="14.40" shape="492.80,98.40 507.20,98.40"/>
    </edge>
    <edge id=":J5_16" function="internal">
        <lane id=":J5_16_0" index="0" speed="8.67" length="3.71" shape="492.80,98.40 496.44,99.11"/>
    </edge>
    <edge id=":J5_17" function="internal">
        <lane id=":J5_17_0" index="0" speed="3.65" length="1.44" shape="492.80,98.40 494.00,99.20"/>
    </edge>
    <edge id=":J5_24" function="internal">
        <lane id=":J5_24_0" index="0" speed="8.67" length="13.14" shape="496.44,99.11 496.65,99.15 499.40,101.40 501.05,105.15 501.60,110.40"/>
    </edge>
    <edge id=":J5_25" function="internal">
        <lane id=":J5_25_0" index="0" speed="3.65" length="3.23" shape="494.00,99.20 494.40,100.00 494.00,100.80 492.80,101.60"/>
    </edge>
    <edge id=":N1_0" function="internal">
        <lane id=":N1_0_0" index="0" speed="3.65" length="4.67" shape="101.60,200.00 100.80,201.20 100.00,201.60 99.20,201.20 98.40,200.00"/>
    </edge>
    <edge id=":N2_0" function="internal">
        <lane id=":N2_0_0" index="0" speed="3.65" length="4.67" shape="201.60,200.00 200.80,201.20 200.00,201.60 199.20,201.20 198.40,200.00"/>
    </edge>
    <edge id=":N3_0" function="internal">
        <lane id=":N3_0_0" index="0" speed="3.65" length="4.67" shape="301.60,200.00 300.80,201.20 300.00,201.60 299.20,201.20 298.40,200.00"/>
    </edge>
    <edge id=":N4_0" function="internal">
        <lane id=":N4_0_0" index="0" speed="3.65" length="4.67" shape="401.60,200.00 400.80,201.20 400.00,201.60 399.20,201.20 398.40,200.00"/>
    </edge>
    <edge id=":N5_0" function="internal">
        <lane id=":N5_0_0" index="0" speed="3.65" length="4.67" shape="501.60,200.00 500.80,201.20 500.00,201.60 499.20,201.20 498.40,200.00"/>
    </edge>
    <edge id=":S1_0" function="internal">
        <lane id=":S1_0_0" index="0" speed="3.65" length="4.67" shape="98.40,0.00 99.20,-1.20 100.00,-1.60 100.80,-1.20 101.60,0.00"/>
    </edge>
    <edge id=":S2_0" function="internal">
        <lane id=":S2_0_0" index="0" speed="3.65" length="4.67" shape="198.40,0.00 199.20,-1.20 200.00,-1.60 200.80,-1.20 201.60,0.00"/>
    </edge>
    <edge id=":S3_0" function="internal">
        <lane id=":S3_0_0" index="0" speed="3.65" length="4.67" shape="298.40,0.00 299.20,-1.20 300.00,-1.60 300.80,-1.20 301.60,0.00"/>
    </edge>
    <edge id=":S4_0" function="internal">
        <lane id=":S4_0_0" index="0" speed="3.65" length="4.67" shape="398.40,0.00 399.20,-1.20 400.00,-1.60 400.80,-1.20 401.60,0.00"/>
    </edge>
    <edge id=":S5_0" function="internal">
        <lane id=":S5_0_0" index="0" speed="3.65" length="4.67" shape="498.40,0.00 499.20,-1.20 500.00,-1.60 500.80,-1.20 501.60,0.00"/>
    </edge>
    <edge id=":W_0" function="internal">
        <lane id=":W_0_0" index="0" speed="3.65" length="4.67" shape="0.00,101.60 -1.20,100.80 -1.60,100.00 -1.20,99.20 0.00,98.40"/>
    </edge>

    <edge id="E_J5" from="E" to="J5" priority="-1">
        <lane id="E_J5_0" index="0" speed="13.90" length="92.80" shape="600.00,104.80 507.20,104.80"/>
        <lane id="E_J5_1" index="1" speed="13.90" length="92.80" shape="600.00,101.60 507.20,101.60"/>
    </edge>
    <edge id="J1_J2" from="J1" to="J2" priority="-1">
        <lane id="J1_J2_0" index="0" speed="13.90" length="85.60" shape="107.20,95.20 192.80,95.20"/>
        <lane id="J1_J2_1" index="1" speed="13.90" length="85.60" shape="107.20,98.40 192.80,98.40"/>
    </edge>
    <edge id="J1_N1" from="J1" to="N1" priority="-1">
        <lane id="J1_N1_0" index="0" speed="11.10" length="89.60" shape="101.60,110.40 101.60,200.00"/>
    </edge>
    <edge id="J1_S1" from="J1" to="S1" priority="-1">
        <lane id="J1_S1_0" index="0" speed="11.10" length="89.60" shape="98.40,89.60 98.40,0.00"/>
    </edge>
    <edge id="J1_W" from="J1" to="W" priority="-1">
        <lane id="J1_W_0" index="0" speed="13.90" length="92.80" shape="92.80,104.80 0.00,104.80"/>
        <lane id="J1_W_1" index="1" speed="13.90" length="92.80" shape="92.80,101.60 0.00,101.60"/>
    </edge>
    <edge id="J2_J1" from="J2" to="J1" priority="-1">
        <lane id="J2_J1_0" index="0" speed="13.90" length="85.60" shape="192.80,104.80 107.20,104.80"/>
        <lane id="J2_J1_1" index="1" speed="13.90" length="85.60" shape="192.80,101.60 107.20,101.60"/>
    </edge>
    <edge id="J2_J3" from="J2" to="J3" priority="-1">
        <lane id="J2_J3_0" index="0" speed="13.90" length="85.60" shape="207.20,95.20 292.80,95.20"/>
        <lane id="J2_J3_1" index="1" speed="13.90" length="85.60" shape="207.20,98.40 292.80,98.40"/>
    </edge>
    <edge id="J2_N2" from="J2" to="N2" priority="-1">
        <lane id="J2_N2_0" index="0" speed="11.10" length="89.60" shape="201.60,110.40 201.60,200.00"/>
    </edge>
    <edge id="J2_S2" from="J2" to="S2" priority="-1">
        <lane id="J2_S2_0" index="0" speed="11.10" length="89.60" shape="198.40,89.60 198.40,0.00"/>
    </edge>
    <edge id="J3_J2" from="J3" to="J2" priority="-1">
        <lane id="J3_J2_0" index="0" speed="13.90" length="85.60" shape="292.80,104.80 207.20,104.80"/>
        <lane id="J3_J2_1" index="1" speed="13.90" length="85.60" shape="292.80,101.60 207.20,101.60"/>
    </edge>
    <edge id="J3_J4" from="J3" to="J4" priority="-1">
        <lane id="J3_J4_0" index="0" speed="13.90" length="85.60" shape="307.20,95.20 392.80,95.20"/>
        <lane id="J3_J4_1" index="1" speed="13.90" length="85.60" shape="307.20,98.40 392.80,98.40"/>
    </edge>
    <edge id="J3_N3" from="J3" to="N3" priority="-1">
        <lane id="J3_N3_0" index="0" speed="11.10" length="89.60" shape="301.60,110.40 301.60,200.00"/>
    </edge>
    <edge id="J3_S3" from="J3" to="S3" priority="-1">
        <lane id="J3_S3_0" index="0" speed="11.10" length="89.60" shape="298.40,89.60 298.40,0.00"/>
    </edge>
    <edge id="J4_J3" from="J4" to="J3" priority="-1">
        <lane id="J4_J3_0" index="0" speed="13.90" length="85.60" shape="392.80,104.80 307.20,104.80"/>
        <lane id="J4_J3_1" index="1" speed="13.90" length="85.60" shape="392.80,101.60 307.20,101.60"/>
    </edge>
    <edge id="J4_J5" from="J4" to="J5" priority="-1">
        <lane id="J4_J5_0" index="0" speed="13.90" length="85.60" shape="407.20,95.20 492.80,95.20"/>
        <lane id="J4_J5_1" index="1" speed="13.90" length="85.60" shape="407.20,98.40 492.80,98.40"/>
    </edge>
    <edge id="J4_N4" from="J4" to="N4" priority="-1">
        <lane id="J4_N4_0" index="0" speed="11.10" length="89.60" shape="401.60,110.40 401.60,200.00"/>
    </edge>
    <edge id="J4_S4" from="J4" to="S4" priority="-1">
        <lane id="J4_S4_0" index="0" speed="11.10" length="89.60" shape="398.40,89.60 398.40,0.00"/>
    </edge>
    <edge id="J5_E" from="J5" to="E" priority="-1">
        <lane id="J5_E_0" index="0" speed="13.90" length="92.80" shape="507.20,95.20 600.00,95.20"/>
        <lane id="J5_E_1" index="1" speed="13.90" length="92.80" shape="507.20,98.40 600.00,98.40"/>
    </edge>
    <edge id="J5_J4" from="J5" to="J4" priority="-1">
        <lane id="J5_J4_0" index="0" speed="13.90" length="85.60" shape="492.80,104.80 407.20,104.80"/>
        <lane id="J5_J4_1" index="1" speed="13.90" length="85.60" shape="492.80,101.60 407.20,101.60"/>
    </edge>
    <edge id="J5_N5" from="J5" to="N5" priority="-1">
        <lane id="J5_N5_0" index="0" speed="11.10" length="89.60" shape="501.60,110.40 501.60,200.00"/>
    </edge>
    <edge id="J5_S5" from="J5" to="S5" priority="-1">
        <lane id="J5_S5_0" index="0" speed="11.10" length="89.60" shape="498.40,89.60 498.40,0.00"/>
    </edge>
    <edge id="N1_J1" from="N1" to="J1" priority="-1">
        <lane id="N1_J1_0" index="0" speed="11.10" length="89.60" shape="98.40,200.00 98.40,110.40"/>
    </edge>